-------------------------------------------------------
          Amber 18 PMEMD                              2018
          -------------------------------------------------------

  [-O]verwriting output

File Assignments:

 Here is the input file:

 Production, 300K 20ns
 &cntrl
  imin=0,          ! Molecular dynamics
  ntx=5,           ! Positions and velocities read NetCDF (or formatted)
  irest=1,         ! Restart calculation
  ntc=2,           ! SHAKE on for bonds with hydrogen
  ntf=2,           ! No force evaluation for bonds with hydrogen
  tol=0.0000001,   ! SHAKE tolerance
  nstlim=5000000,  ! Number of MD steps - 20 ns at 4 fs timestep
  ntt=3,           ! Langevin dynamics
  gamma_ln=2.0,    ! Collision frequency for Langevin dyn.
  temp0=300.0,     ! Simulation temperature (K)
  ntpr=2500,       ! Print to mdout every ntpr steps
  ntwr=2500,       ! Write a restart file every ntwr steps
  ntwx=2500,       ! Write to trajectory file every ntwx steps
  ntwprt=3512,
  dt=0.004,        ! Timestep (ps) is 4 fs
  ig=-1,           ! Random seed for Langevin dynamics
  ntb=2,           ! Constant pressure periodic boundary conditions
  ntp=1,           ! Isotropic pressure coupling
  cut=8.0,         ! Nonbonded cutoff (Angstroms)
  ioutfm=1,        ! Write binary NetCDF trajectory
  ntxo=2,          ! Write binary restart file
  barostat=2,      ! Use Monte Carlo barostat (Amber 14+)
  iwrap=1,
 &end

Note: ig = -1. Setting random seed to   400967 based on wallclock time in
      microseconds.

--------------------------------------------------------------------------------
   1.  RESOURCE   USE:
--------------------------------------------------------------------------------

 getting box info from netcdf restart file
 NATOM  =   45884 NTYPES =      18 NBONH =   33502 MBONA  =   12419
 NTHETH =    3896 MTHETA =    2482 NPHIH =    8215 MPHIA  =    7890
 NHPARM =       0 NPARM  =       0 NNB   =   93476 NRES   =   10829
 NBONA  =   12419 NTHETA =    2482 NPHIA =    7890 NUMBND =      72
 NUMANG =     171 NPTRA  =     194 NATYP =      36 NPHB   =       1
 IFBOX  =       1 NMXRS  =      25 IFCAP =       0 NEXTRA =   10592
 NCOPY  =       0

     BOX TYPE: RECTILINEAR

--------------------------------------------------------------------------------
   2.  CONTROL  DATA  FOR  THE  RUN
--------------------------------------------------------------------------------

default_name

General flags:
     imin    =       0, nmropt  =       0

Nature and format of input:
     ntx     =       5, irest   =       1, ntrx    =       1

Nature and format of output:
     ntxo    =       2, ntpr    =    2500, ntrx    =       1, ntwr    =    2500
     iwrap   =       1, ntwx    =    2500, ntwv    =       0, ntwe    =       0
     ioutfm  =       1, ntwprt  =    3512, idecomp =       0, rbornstat=      0

Potential function:
     ntf     =       2, ntb     =       2, igb     =       0, nsnb    =      25
     ipol    =       0, gbsa    =       0, iesp    =       0
     dielc   =   1.00000, cut     =   8.00000, intdiel =   1.00000

Frozen or restrained atoms:
     ibelly  =       0, ntr     =       0

Molecular dynamics:
     nstlim  =   5000000, nscm    =      1000, nrespa  =         1
     t       =   0.00000, dt      =   0.00400, vlimit  =  -1.00000

Langevin dynamics temperature regulation:
     ig      =  400967
     temp0   = 300.00000, tempi   =   0.00000, gamma_ln=   2.00000

Pressure regulation:
     ntp     =       1
     pres0   =   1.00000, comp    =  44.60000, taup    =   1.00000
     Monte-Carlo Barostat:
     mcbarint  =     100

SHAKE:
     ntc     =       2, jfastw  =       0
     tol     =   0.00000

Extra-points options:
     frameon =       1, chngmask=       1

Ewald parameters:
     verbose =       0, ew_type =       0, nbflag  =       1, use_pme =       1
     vdwmeth =       1, eedmeth =       1, netfrc  =       1
     Box X =   69.251   Box Y =   66.403   Box Z =   75.809
     Alpha =   90.000   Beta  =   90.000   Gamma =   90.000
     NFFT1 =   72       NFFT2 =   64       NFFT3 =   80
     Cutoff=    8.000   Tol   =0.100E-04
     Ewald Coefficient =  0.34864
     Interpolation order =    4

--------------------------------------------------------------------------------
   3.  ATOMIC COORDINATES AND VELOCITIES
--------------------------------------------------------------------------------

default_name
 begin time read from input coords =********** ps

 Number of triangulated 3-point waters found:    10592

     Sum of charges from parm topology file =   0.00005795
     Forcing neutrality...

--------------------------------------------------------------------------------
   4.  RESULTS
 NSTEP =     2500   TIME(PS) = 1240284.993  TEMP(K) =   302.57  PRESS =     0.0
 Etot   =   -114768.2604  EKtot   =     21757.7188  EPtot      =   -136525.9792
 BOND   =       846.6848  ANGLE   =      1836.7638  DIHED      =      1294.6698
 1-4 NB =       751.2665  1-4 EEL =      8628.9421  VDWAALS    =     16138.5076
 EELEC  =   -166022.8138  EHBOND  =         0.0000  RESTRAINT  =         0.0000
 EKCMT  =         0.0000  VIRIAL  =         0.0000  VOLUME     =    348280.3997
                                                    Density    =         1.0316
 ------------------------------------------------------------------------------

      A V E R A G E S   O V E R    2000 S T E P S

 NSTEP =  5000000   TIME(PS) = 1260274.993  TEMP(K) =   300.32  PRESS =     0.0
 Etot   =   -115062.1678  EKtot   =     21595.8076  EPtot      =   -136657.9754
 BOND   =       837.2914  ANGLE   =      1811.2487  DIHED      =      1298.5600
 1-4 NB =       761.4635  1-4 EEL =      8669.6891  VDWAALS    =     16159.8752
 EELEC  =   -166196.1033  EHBOND  =         0.0000  RESTRAINT  =         0.0000
 EKCMT  =         0.0000  VIRIAL  =         0.0000  VOLUME     =    348818.5611
                                                    Density    =         1.0301
 ------------------------------------------------------------------------------

      R M S  F L U C T U A T I O N S

 NSTEP =  5000000   TIME(PS) = 1260274.993  TEMP(K) =     1.58  PRESS =     0.0
 Etot   =       212.8913  EKtot   =       113.4521  EPtot      =       176.3972
 BOND   =        27.7385  ANGLE   =        34.2561  DIHED      =        18.8028
 1-4 NB =        11.5908  1-4 EEL =        48.2013  VDWAALS    =       191.2900
 EELEC  =       294.8436  EHBOND  =         0.0000  RESTRAINT  =         0.0000
 EKCMT  =         0.0000  VIRIAL  =         0.0000  VOLUME     =       782.6520
                                                    Density    =         0.0023
 ------------------------------------------------------------------------------
