-------------------------------------------------------
          Amber 18 PMEMD                              2018
          -------------------------------------------------------

  [-O]verwriting output

File Assignments:

 Here is the input file:

 Production, 300K 20ns
 &cntrl
  imin=0,          ! Molecular dynamics
  ntx=5,           ! Positions and velocities read NetCDF (or formatted)
  irest=1,         ! Restart calculation
  ntc=2,           ! SHAKE on for bonds with hydrogen
  ntf=2,           ! No force evaluation for bonds with hydrogen
  tol=0.0000001,   ! SHAKE tolerance
  nstlim=5000000,  ! Number of MD steps - 20 ns at 4 fs timestep
  ntt=3,           ! Langevin dynamics
  gamma_ln=2.0,    ! Collision frequency for Langevin dyn.
  temp0=300.0,     ! Simulation temperature (K)
  ntpr=2500,       ! Print to mdout every ntpr steps
  ntwr=2500,       ! Write a restart file every ntwr steps
  ntwx=2500,       ! Write to trajectory file every ntwx steps
  ntwprt=3516,
  dt=0.004,        ! Timestep (ps) is 4 fs
  ig=-1,           ! Random seed for Langevin dynamics
  ntb=2,           ! Constant pressure periodic boundary conditions
  ntp=1,           ! Isotropic pressure coupling
  cut=8.0,         ! Nonbonded cutoff (Angstroms)
  ioutfm=1,        ! Write binary NetCDF trajectory
  ntxo=2,          ! Write binary restart file
  barostat=2,      ! Use Monte Carlo barostat (Amber 14+)
  iwrap=1,
 &end

Note: ig = -1. Setting random seed to   567644 based on wallclock time in
      microseconds.

--------------------------------------------------------------------------------
   1.  RESOURCE   USE:
--------------------------------------------------------------------------------

 getting box info from netcdf restart file
 NATOM  =   48255 NTYPES =      18 NBONH =   35284 MBONA  =   13005
 NTHETH =    3916 MTHETA =    2476 NPHIH =    8205 MPHIA  =    7868
 NHPARM =       0 NPARM  =       0 NNB   =   97647 NRES   =   11424
 NBONA  =   13005 NTHETA =    2476 NPHIA =    7868 NUMBND =      72
 NUMANG =     171 NPTRA  =     194 NATYP =      36 NPHB   =       1
 IFBOX  =       1 NMXRS  =      25 IFCAP =       0 NEXTRA =   11183
 NCOPY  =       0

     BOX TYPE: RECTILINEAR

--------------------------------------------------------------------------------
   2.  CONTROL  DATA  FOR  THE  RUN
--------------------------------------------------------------------------------

default_name

General flags:
     imin    =       0, nmropt  =       0

Nature and format of input:
     ntx     =       5, irest   =       1, ntrx    =       1

Nature and format of output:
     ntxo    =       2, ntpr    =    2500, ntrx    =       1, ntwr    =    2500
     iwrap   =       1, ntwx    =    2500, ntwv    =       0, ntwe    =       0
     ioutfm  =       1, ntwprt  =    3516, idecomp =       0, rbornstat=      0

Potential function:
     ntf     =       2, ntb     =       2, igb     =       0, nsnb    =      25
     ipol    =       0, gbsa    =       0, iesp    =       0
     dielc   =   1.00000, cut     =   8.00000, intdiel =   1.00000

Frozen or restrained atoms:
     ibelly  =       0, ntr     =       0

Molecular dynamics:
     nstlim  =   5000000, nscm    =      1000, nrespa  =         1
     t       =   0.00000, dt      =   0.00400, vlimit  =  -1.00000

Langevin dynamics temperature regulation:
     ig      =  567644
     temp0   = 300.00000, tempi   =   0.00000, gamma_ln=   2.00000

Pressure regulation:
     ntp     =       1
     pres0   =   1.00000, comp    =  44.60000, taup    =   1.00000
     Monte-Carlo Barostat:
     mcbarint  =     100

SHAKE:
     ntc     =       2, jfastw  =       0
     tol     =   0.00000

Extra-points options:
     frameon =       1, chngmask=       1

Ewald parameters:
     verbose =       0, ew_type =       0, nbflag  =       1, use_pme =       1
     vdwmeth =       1, eedmeth =       1, netfrc  =       1
     Box X =   69.802   Box Y =   67.694   Box Z =   77.668
     Alpha =   90.000   Beta  =   90.000   Gamma =   90.000
     NFFT1 =   72       NFFT2 =   64       NFFT3 =   80
     Cutoff=    8.000   Tol   =0.100E-04
     Ewald Coefficient =  0.34864
     Interpolation order =    4

--------------------------------------------------------------------------------
   3.  ATOMIC COORDINATES AND VELOCITIES
--------------------------------------------------------------------------------

default_name
 begin time read from input coords =400275.000 ps

 Number of triangulated 3-point waters found:    11183

     Sum of charges from parm topology file =   0.00006119
     Forcing neutrality...

--------------------------------------------------------------------------------
   4.  RESULTS
 NSTEP =     2500   TIME(PS) =  400285.000  TEMP(K) =   300.13  PRESS =     0.0
 Etot   =   -121355.4007  EKtot   =     22643.2207  EPtot      =   -143998.6214
 BOND   =       791.2722  ANGLE   =      1862.8994  DIHED      =      1337.2252
 1-4 NB =       756.0228  1-4 EEL =      8663.2165  VDWAALS    =     17182.4776
 EELEC  =   -174591.7351  EHBOND  =         0.0000  RESTRAINT  =         0.0000
 EKCMT  =         0.0000  VIRIAL  =         0.0000  VOLUME     =    367513.2687
                                                    Density    =         1.0259
 ------------------------------------------------------------------------------

      A V E R A G E S   O V E R    2000 S T E P S

 NSTEP =  5000000   TIME(PS) =  420275.000  TEMP(K) =   300.39  PRESS =     0.0
 Etot   =   -121300.3122  EKtot   =     22663.4871  EPtot      =   -143963.7992
 BOND   =       835.0313  ANGLE   =      1828.5904  DIHED      =      1300.1284
 1-4 NB =       756.2718  1-4 EEL =      8645.0372  VDWAALS    =     17226.3939
 EELEC  =   -174555.2523  EHBOND  =         0.0000  RESTRAINT  =         0.0000
 EKCMT  =         0.0000  VIRIAL  =         0.0000  VOLUME     =    366847.0243
                                                    Density    =         1.0277
 ------------------------------------------------------------------------------

      R M S  F L U C T U A T I O N S

 NSTEP =  5000000   TIME(PS) =  420275.000  TEMP(K) =     1.58  PRESS =     0.0
 Etot   =       219.1622  EKtot   =       119.2153  EPtot      =       180.5682
 BOND   =        26.7747  ANGLE   =        34.5917  DIHED      =        18.1488
 1-4 NB =        11.5072  1-4 EEL =        43.3639  VDWAALS    =       209.1094
 EELEC  =       319.2068  EHBOND  =         0.0000  RESTRAINT  =         0.0000
 EKCMT  =         0.0000  VIRIAL  =         0.0000  VOLUME     =       780.7926
                                                    Density    =         0.0022
 ------------------------------------------------------------------------------
